9
energy: -155.1065184553600034
C  0.9811201274478100  0.2687379705464200  -0.1965068584171300
C  -0.3789029207927900  -0.3894798023976600  -0.0560643822081000
O  -1.3661204485421099  0.6501460981392100  0.0285700105131400
H  1.0191343325423099  0.8879860574709000  -1.1036234271986500
H  1.1896417595586199  0.9127236110323000  0.6693015751927800
H  1.7716153569052799  -0.4927883867772800  -0.2617973749787500
H  -0.5761316990432300  -1.0438703666882800  -0.9266095401968200
H  -0.4022978562577100  -1.0234151827733899  0.8509137140603600
H  -2.2380586518182199  0.2299600014477900  0.1161190312802900
